Circuit: * Z:\home\andre\Documents\1P2A-Faculdade\AC\Lab\1\Slice\Draft1.asc

Direct Newton iteration for .op point succeeded.

Date: Sun Oct 10 13:05:37 2021
Total elapsed time: 0.038 seconds.

tnom = 27
temp = 27
method = trap
totiter = 3
traniter = 0
tranpoints = 0
accept = 0
rejected = 0
matrix size = 5
fillins = 0
solver = Normal
Matrix Compiler1: 96 bytes object code size
Matrix Compiler2: 267 bytes object code size
