Circuit: * C:\users\andre\My Documents\1P2A-Faculdade\AC\Lab\1\Thevenin1.asc

Direct Newton iteration for .op point succeeded.

Date: Sun Oct 10 09:47:48 2021
Total elapsed time: 0.045 seconds.

tnom = 27
temp = 27
method = trap
totiter = 3
traniter = 0
tranpoints = 0
accept = 0
rejected = 0
matrix size = 6
fillins = 0
solver = Normal
Matrix Compiler1: 164 bytes object code size
Matrix Compiler2: 374 bytes object code size
